OPT_V8/My_Campus_24/powerflow_results_t16.txt
Pandapower Network Debug Info
==================================================

BUS:
       vm_pu  va_degree      p_mw    q_mvar
0   0.993122   0.175865  0.000667  0.000971
1   0.988835   0.275316  0.001432  0.002235
2   0.985188   0.369121  0.001615  0.003022
3   0.989210   0.298815  0.002072  0.004773
4   0.988467   0.315255  0.002808  0.005971
5   0.992048   0.149106  0.003379  0.005946
6   0.990423   0.147916  0.001161  0.000882
7   0.997932   0.027452  0.001365  0.001726
8   0.997666   0.047912  0.002451  0.002802
9   0.999887   0.000976  0.010444  0.011010
10  0.999875   0.001028  0.010829  0.007861
11  0.999865   0.001118  0.010747  0.011580
12  0.999762   0.001706  0.010461  0.005626
13  0.999731   0.001893  0.014096  0.011117
14  0.999742   0.001890  0.012478  0.013863
15  0.999930   0.000733  0.000000  0.000000
16  0.999930   0.000740  0.000000  0.000000
17  0.999767   0.001756  0.000000  0.000000
18  0.999767   0.001766  0.000000  0.000000
19  1.000000   0.000000 -0.037957 -0.046553
20  1.000000   0.000006  0.000000  0.000000
21  1.000000   0.000000 -0.048362 -0.053045
22  1.000000   0.000007  0.000000  0.000000
--------------------------------------------------

LINE:
    p_from_mw  q_from_mvar   p_to_mw  q_to_mvar         pl_mw       ql_mvar  i_from_ka   i_to_ka      i_ka  vm_from_pu  va_from_degree  vm_to_pu  va_to_degree  loading_percent
0    0.037947     0.042553 -0.037944  -0.042551  3.179680e-06  2.479249e-06   0.002195  0.002195  0.002195    1.000000        0.000006  0.999930      0.000733         0.954142
1    0.048352     0.049045 -0.048339  -0.049035  1.275890e-05  9.948323e-06   0.002651  0.002651  0.002651    1.000000        0.000007  0.999767      0.001756         1.152555
2    0.032023     0.030453 -0.032021  -0.030452  1.510294e-06  1.177601e-06   0.001701  0.001701  0.001701    0.999930        0.000733  0.999887      0.000976         0.739575
3    0.010461     0.005626 -0.010461  -0.005626  4.880883e-08  3.805705e-08   0.000457  0.000457  0.000457    0.999767        0.001756  0.999762      0.001706         0.198812
4    0.026574     0.024982 -0.026574  -0.024981  7.277260e-07  5.674199e-07   0.001404  0.001404  0.001404    0.999767        0.001756  0.999742      0.001890         0.610510
5    0.005911     0.011098 -0.005837  -0.011041  7.396384e-05  5.767083e-05   0.018151  0.018151  0.018151    0.999930        0.000740  0.993122      0.175865         7.891654
6    0.004595     0.006870 -0.004542  -0.006829  5.301877e-05  4.133961e-05   0.011932  0.011932  0.011932    0.999767        0.001766  0.992048      0.149106         5.187841
7    0.001368     0.001729 -0.001365  -0.001726  3.284572e-06  2.561035e-06   0.003183  0.003183  0.003183    0.999767        0.001766  0.997932      0.027452         1.383706
8    0.005332     0.008830 -0.005313  -0.008815  1.830072e-05  1.426937e-05   0.014891  0.014891  0.014891    0.999767        0.001766  0.997666      0.047912         6.474412
9   -0.021577    -0.019441  0.021577   0.019442  2.917869e-07  2.275111e-07   0.001118  0.001118  0.001118    0.999875        0.001028  0.999887      0.000976         0.486101
10  -0.010747    -0.011580  0.010748   0.011580  1.221052e-07  9.520742e-08   0.000608  0.000608  0.000608    0.999865        0.001118  0.999875      0.001028         0.264425
11   0.014096     0.011118 -0.014096  -0.011117  1.577024e-07  1.229631e-07   0.000691  0.000691  0.000691    0.999742        0.001890  0.999731      0.001893         0.300508
12  -0.003058    -0.005265  0.003080   0.005283  2.243175e-05  1.749041e-05   0.008888  0.008888  0.008888    0.988835        0.275316  0.993122      0.175865         3.864203
13  -0.002072    -0.004773  0.002090   0.004787  1.847257e-05  1.440337e-05   0.007592  0.007592  0.007592    0.989210        0.298815  0.993122      0.175865         3.300879
14  -0.001615    -0.003022  0.001625   0.003031  1.094116e-05  8.531000e-06   0.005020  0.005020  0.005020    0.985188        0.369121  0.988835      0.275316         2.182511
15   0.002862     0.006014 -0.002808  -0.005971  5.422404e-05  4.227938e-05   0.009635  0.009635  0.009635    0.997666        0.047912  0.988467      0.315255         4.189345
16  -0.001161    -0.000882  0.001163   0.000883  1.886021e-06  1.470562e-06   0.002124  0.002124  0.002124    0.990423        0.147916  0.992048      0.149106         0.923655
--------------------------------------------------

TRAFO:
    p_hv_mw  q_hv_mvar   p_lv_mw  q_lv_mvar    pl_mw   ql_mvar   i_hv_ka   i_lv_ka  vm_hv_pu  va_hv_degree  vm_lv_pu  va_lv_degree  loading_percent
0  0.005921   0.012098 -0.005911  -0.011098  0.00001  0.001000  0.000518  0.018151  0.999930      0.000733  0.999930      0.000740         0.134704
1  0.011304   0.018428 -0.011294  -0.017428  0.00001  0.000999  0.000832  0.029983  0.999767      0.001756  0.999767      0.001766         0.216237
2  0.037957   0.046553 -0.037947  -0.042553  0.00001  0.004000  0.000495  0.002195  1.000000      0.000000  1.000000      0.000006         0.150166
3  0.048362   0.053045 -0.048352  -0.049045  0.00001  0.004000  0.000592  0.002651  1.000000      0.000000  1.000000      0.000007         0.179455
--------------------------------------------------
